@<TRIPOS>MOLECULE
*****
 6 5 0 0 0
SMALL
GASTEIGER

@<TRIPOS>ATOM
      1 C3          -3.6766    2.2544    0.0000 C.3     1  UNL1        0.0232
      2 C1          -2.2085    2.3243    0.0000 C.1     1  UNL1        0.0591
      3 H1          -4.0180    1.5329    0.7450 H1       1  UNL1        0.0382
      4 H2          -4.0376    1.9439   -0.9826 H2       1  UNL1        0.0382
      5 H3          -4.0990    3.2329    0.2376 H3       1  UNL1        0.0382
      6 N          -1.0737    2.4082   -0.0000 N.1     1  UNL1       -0.1969
@<TRIPOS>BOND
     1     1     2    1
     2     1     3    1
     3     1     4    1
     4     1     5    1
     5     2     6    3
