@<TRIPOS>MOLECULE
*****
 5 4 0 0 0
SMALL
GASTEIGER

@<TRIPOS>ATOM
      1 C           0.2212    1.0449   -0.1267 C.3     1  UNL1        0.1805
      2 Cl          1.9887    0.8534   -0.1024 Cl      1  UNL1       -0.0870
      3 Cl         -0.5356   -0.3333    0.7034 Cl      1  UNL1       -0.0870
      4 Cl         -0.2229    2.5533    0.7033 Cl      1  UNL1       -0.0870
      5 H          -0.1322    1.0831   -1.1776 H       1  UNL1        0.0806
@<TRIPOS>BOND
     1     1     2    1
     2     1     3    1
     3     1     4    1
     4     1     5    1
