#
# Generated by PyRED version JAN-2019
#     http://q4md-forcefieldtools.org
#
@<TRIPOS>MOLECULE
UNL
     5     4     1     0     1
SMALL
USER_CHARGES
@<TRIPOS>ATOM
   1 C      0.000013  -0.000012   0.449660 CT   1   UNL -0.3426  0.0000 ****
   2 H      0.000009  -0.000002   1.520967 H3   1   UNL  0.3141  0.0000 ****
   3 CL1   -0.188880   1.669722  -0.082723 Cl   1   UNL  0.0095  0.0000 ****
   4 CL2   -1.351590  -0.998431  -0.082724 Cl   1   UNL  0.0095  0.0000 ****
   5 CL     1.540465  -0.671287  -0.082726 Cl   1   UNL  0.0095  0.0000 ****
@<TRIPOS>BOND
    1     1     2 1
    2     1     3 1
    3     1     4 1
    4     1     5 1
@<TRIPOS>SUBSTRUCTURE
      1 UNL               1 ****               0 ****  ****
@<TRIPOS>HEADTAIL
0 0
0 0
@<TRIPOS>RESIDUECONNECT
1 0 0 0 0 0 0
