#
# Generated by PyRED version JAN-2019
#     http://q4md-forcefieldtools.org
#
@<TRIPOS>MOLECULE
RES
    15    14     1     0     1
SMALL
USER_CHARGES
@<TRIPOS>ATOM
   1 C1    -2.509758  -0.375209  -0.025909 CT   1   RES  0.2526  0.0000 ****
   2 F1    -2.878014  -0.781727   1.168322 F    1   RES -0.1167  0.0000 ****
   3 F2    -3.551948   0.189400  -0.602979 F    1   RES -0.1167  0.0000 ****
   4 F3    -2.169695  -1.427994  -0.732449 F    1   RES -0.1167  0.0000 ****
   5 S1    -1.147462   0.826699   0.077552 S    1   RES  1.1271  0.0000 ****
   6 O1    -1.637023   1.810134   0.993365 O    1   RES -0.5784  0.0000 ****
   7 O2    -0.909267   1.215961  -1.278294 O    1   RES -0.5784  0.0000 ****
   8 N      0.000004   0.000020   0.770835 N*   1   RES -0.7456  0.0000 ****
   9 S      1.147453  -0.826688   0.077556 S    1   RES  1.1271  0.0000 ****
  10 O3     0.909252  -1.215947  -1.278290 O    1   RES -0.5784  0.0000 ****
  11 O      1.636997  -1.810129   0.993370 O    1   RES -0.5784  0.0000 ****
  12 C      2.509767   0.375199  -0.025908 CT   1   RES  0.2526  0.0000 ****
  13 F4     3.551950  -0.189427  -0.602977 F    1   RES -0.1167  0.0000 ****
  14 F5     2.878030   0.781713   1.168322 F    1   RES -0.1167  0.0000 ****
  15 F      2.169719   1.427987  -0.732449 F    1   RES -0.1167  0.0000 ****
@<TRIPOS>BOND
    1     1     2 1
    2     1     3 1
    3     1     4 1
    4     1     5 1
    5     5     6 1
    6     5     7 1
    7     5     8 1
    8     8     9 1
    9     9    10 1
   10     9    11 1
   11     9    12 1
   12    12    13 1
   13    12    14 1
   14    12    15 1
@<TRIPOS>SUBSTRUCTURE
      1 RES               1 ****               0 ****  ****
@<TRIPOS>HEADTAIL
0 0
0 0
@<TRIPOS>RESIDUECONNECT
1 0 0 0 0 0 0
